<?xml version="1.0" encoding="UTF-8"?>

<!-- generated on 2021-05-21 15:53:39 by Eclipse SUMO netedit Version 1.9.2
<configuration xmlns:xsi="http://www.w3.org/2001/XMLSchema-instance" xsi:noNamespaceSchemaLocation="http://sumo.dlr.de/xsd/netconvertConfiguration.xsd">

    <output>
        <output-file value="C:\Users\guosh\Documents\GitHub\SUMO-Tutorial\Drivingincircles\baseDir\circles.net.xml"/>
    </output>

    <processing>
        <offset.disable-normalization value="true"/>
    </processing>

    <junctions>
        <no-turnarounds value="true"/>
    </junctions>

    <netedit>
        <route-files value="C:\Users\guosh\Documents\GitHub\SUMO-Tutorial\Drivingincircles\baseDir\circles.rou.xml"/>
    </netedit>

    <report>
        <aggregate-warnings value="5"/>
    </report>

</configuration>
-->

<routes xmlns:xsi="http://www.w3.org/2001/XMLSchema-instance" xsi:noNamespaceSchemaLocation="http://sumo.dlr.de/xsd/routes_file.xsd">
    <route edges="edge8 edge1 edge2 edge3 edge4" color="yellow" id="route_0"/>
    <flow id="flow_0" begin="0.00" route="route_0" end="0.00" number="5"/>
</routes>
