<?xml version="1.0" encoding="UTF-8"?>

<!-- generated on 2021-05-21 15:16:23 by Eclipse SUMO netedit Version 1.9.2
<configuration xmlns:xsi="http://www.w3.org/2001/XMLSchema-instance" xsi:noNamespaceSchemaLocation="http://sumo.dlr.de/xsd/netconvertConfiguration.xsd">

    <output>
        <output-file value="C:\Users\guosh\Documents\GitHub\SUMO-Tutorial\Drivingincircles\baseDir\circles.net.xml"/>
    </output>

    <processing>
        <offset.disable-normalization value="true"/>
    </processing>

    <junctions>
        <no-turnarounds value="true"/>
    </junctions>

    <report>
        <aggregate-warnings value="5"/>
    </report>

</configuration>
-->

<net version="1.9" junctionCornerDetail="5" limitTurnSpeed="5.50" xmlns:xsi="http://www.w3.org/2001/XMLSchema-instance" xsi:noNamespaceSchemaLocation="http://sumo.dlr.de/xsd/net_file.xsd">

    <location netOffset="0.00,0.00" convBoundary="-12.85,14.76,73.01,80.08" origBoundary="10000000000.00,10000000000.00,-10000000000.00,-10000000000.00" projParameter="!"/>

    <edge id=":gneJ10_0" function="internal">
        <lane id=":gneJ10_0_0" index="0" speed="4.07" length="1.52" shape="-10.79,50.70 -10.88,51.08 -10.88,51.45 -10.78,51.80 -10.60,52.15"/>
    </edge>
    <edge id=":gneJ11_0" function="internal">
        <lane id=":gneJ11_0_0" index="0" speed="13.89" length="0.83" shape="-0.35,67.03 -0.20,67.23 -0.09,67.35 0.05,67.45 0.27,67.56"/>
    </edge>
    <edge id=":gneJ4_0" function="internal">
        <lane id=":gneJ4_0_0" index="0" speed="13.89" length="0.92" shape="22.20,78.24 22.45,78.35 22.63,78.40 22.82,78.41 23.09,78.39"/>
    </edge>
    <edge id=":gneJ5_0" function="internal">
        <lane id=":gneJ5_0_0" index="0" speed="3.99" length="1.80" shape="61.65,73.97 62.11,73.86 62.48,73.65 62.77,73.33 62.98,72.91"/>
    </edge>
    <edge id=":gneJ6_0" function="internal">
        <lane id=":gneJ6_0_0" index="0" speed="4.31" length="1.15" shape="71.11,49.70 71.22,49.38 71.25,49.15 71.21,48.92 71.10,48.60"/>
    </edge>
    <edge id=":gneJ7_0" function="internal">
        <lane id=":gneJ7_0_0" index="0" speed="3.97" length="1.91" shape="59.29,17.97 59.06,17.53 58.73,17.21 58.32,17.01 57.83,16.94"/>
    </edge>
    <edge id=":gneJ8_0" function="internal">
        <lane id=":gneJ8_0_0" index="0" speed="13.89" length="0.81" shape="20.56,16.37 20.32,16.37 20.15,16.39 20.00,16.45 19.79,16.55"/>
    </edge>
    <edge id=":gneJ9_0" function="internal">
        <lane id=":gneJ9_0_0" index="0" speed="4.27" length="1.20" shape="-2.23,28.18 -2.54,28.36 -2.73,28.52 -2.86,28.73 -2.99,29.06"/>
    </edge>

    <edge id="edge1" from="gneJ4" to="gneJ5" priority="-1">
        <lane id="edge1_0" index="0" speed="13.89" length="38.82" shape="23.09,78.39 61.65,73.97"/>
    </edge>
    <edge id="edge2" from="gneJ5" to="gneJ6" priority="-1">
        <lane id="edge2_0" index="0" speed="13.89" length="24.59" shape="62.98,72.91 71.11,49.70"/>
    </edge>
    <edge id="edge3" from="gneJ6" to="gneJ7" priority="-1">
        <lane id="edge3_0" index="0" speed="13.89" length="32.83" shape="71.10,48.60 59.29,17.97"/>
    </edge>
    <edge id="edge4" from="gneJ7" to="gneJ8" priority="-1">
        <lane id="edge4_0" index="0" speed="13.89" length="37.27" shape="57.83,16.94 20.56,16.37"/>
    </edge>
    <edge id="edge5" from="gneJ8" to="gneJ9" priority="-1">
        <lane id="edge5_0" index="0" speed="13.89" length="24.90" shape="19.79,16.55 -2.23,28.18"/>
    </edge>
    <edge id="edge6" from="gneJ9" to="gneJ10" priority="-1">
        <lane id="edge6_0" index="0" speed="13.89" length="23.00" shape="-2.99,29.06 -10.79,50.70"/>
    </edge>
    <edge id="edge7" from="gneJ10" to="gneJ11" priority="-1">
        <lane id="edge7_0" index="0" speed="13.89" length="18.07" shape="-10.60,52.15 -0.35,67.03"/>
    </edge>
    <edge id="edge8" from="gneJ11" to="gneJ4" priority="-1">
        <lane id="edge8_0" index="0" speed="13.89" length="24.40" shape="0.27,67.56 22.20,78.24"/>
    </edge>

    <junction id="gneJ10" type="priority" x="-12.85" y="51.70" incLanes="edge6_0" intLanes=":gneJ10_0_0" shape="-11.92,53.06 -9.28,51.24 -12.29,50.16 -12.50,51.17 -12.48,51.65 -12.37,52.13 -12.19,52.60">
        <request index="0" response="0" foes="0" cont="0"/>
    </junction>
    <junction id="gneJ11" type="priority" x="-1.19" y="68.63" incLanes="edge7_0" intLanes=":gneJ11_0_0" shape="-0.43,69.00 0.97,66.12 -1.66,67.93 -1.30,68.43 -1.15,68.58 -0.97,68.71 -0.74,68.84">
        <request index="0" response="0" foes="0" cont="0"/>
    </junction>
    <junction id="gneJ4" type="priority" x="22.34" y="80.08" incLanes="edge8_0" intLanes=":gneJ4_0_0" shape="23.27,79.98 22.91,76.80 21.50,79.67 22.12,79.95 22.35,80.01 22.60,80.03 22.89,80.02">
        <request index="0" response="0" foes="0" cont="0"/>
    </junction>
    <junction id="gneJ5" type="priority" x="63.83" y="75.34" incLanes="edge1_0" intLanes=":gneJ5_0_0" shape="64.49,73.44 61.47,72.38 61.84,75.56 63.02,75.23 63.50,74.92 63.90,74.52 64.23,74.03">
        <request index="0" response="0" foes="0" cont="0"/>
    </junction>
    <junction id="gneJ6" type="priority" x="73.01" y="49.12" incLanes="edge2_0" intLanes=":gneJ6_0_0" shape="72.59,48.02 69.60,49.18 72.62,50.23 72.87,49.43 72.89,49.12 72.86,48.82 72.76,48.47">
        <request index="0" response="0" foes="0" cont="0"/>
    </junction>
    <junction id="gneJ7" type="priority" x="60.01" y="15.38" incLanes="edge3_0" intLanes=":gneJ7_0_0" shape="57.80,18.54 60.79,17.39 60.12,16.27 59.66,15.87 59.14,15.59 58.53,15.41 57.85,15.34">
        <request index="0" response="0" foes="0" cont="0"/>
    </junction>
    <junction id="gneJ8" type="priority" x="19.76" y="14.76" incLanes="edge4_0" intLanes=":gneJ8_0_0" shape="20.53,17.97 20.58,14.77 19.98,14.78 19.78,14.81 19.57,14.88 19.34,14.98 19.04,15.14">
        <request index="0" response="0" foes="0" cont="0"/>
    </junction>
    <junction id="gneJ9" type="priority" x="-4.08" y="27.35" incLanes="edge5_0" intLanes=":gneJ9_0_0" shape="-1.49,29.60 -2.98,26.77 -3.74,27.22 -3.97,27.44 -4.16,27.70 -4.32,28.04 -4.50,28.51">
        <request index="0" response="0" foes="0" cont="0"/>
    </junction>

    <connection from="edge1" to="edge2" fromLane="0" toLane="0" via=":gneJ5_0_0" dir="r" state="M"/>
    <connection from="edge2" to="edge3" fromLane="0" toLane="0" via=":gneJ6_0_0" dir="s" state="M"/>
    <connection from="edge3" to="edge4" fromLane="0" toLane="0" via=":gneJ7_0_0" dir="r" state="M"/>
    <connection from="edge4" to="edge5" fromLane="0" toLane="0" via=":gneJ8_0_0" dir="s" state="M"/>
    <connection from="edge5" to="edge6" fromLane="0" toLane="0" via=":gneJ9_0_0" dir="s" state="M"/>
    <connection from="edge6" to="edge7" fromLane="0" toLane="0" via=":gneJ10_0_0" dir="r" state="M"/>
    <connection from="edge7" to="edge8" fromLane="0" toLane="0" via=":gneJ11_0_0" dir="s" state="M"/>
    <connection from="edge8" to="edge1" fromLane="0" toLane="0" via=":gneJ4_0_0" dir="s" state="M"/>

    <connection from=":gneJ10_0" to="edge7" fromLane="0" toLane="0" dir="r" state="M"/>
    <connection from=":gneJ11_0" to="edge8" fromLane="0" toLane="0" dir="s" state="M"/>
    <connection from=":gneJ4_0" to="edge1" fromLane="0" toLane="0" dir="s" state="M"/>
    <connection from=":gneJ5_0" to="edge2" fromLane="0" toLane="0" dir="r" state="M"/>
    <connection from=":gneJ6_0" to="edge3" fromLane="0" toLane="0" dir="s" state="M"/>
    <connection from=":gneJ7_0" to="edge4" fromLane="0" toLane="0" dir="r" state="M"/>
    <connection from=":gneJ8_0" to="edge5" fromLane="0" toLane="0" dir="s" state="M"/>
    <connection from=":gneJ9_0" to="edge6" fromLane="0" toLane="0" dir="s" state="M"/>

</net>
